&jules_drive
data_end='1997-12-31 23:00:00',
data_period=1800,
data_start='1996-12-31 23:00:00',
file='../../loobos/Loobos_1997.dat',
interp=8*'nf',
l_daily_disagg=.false.,
l_imogen=.false.,
nvars=8,
read_list=.false.,
tpl_name='',
var='sw_down','lw_down','tot_rain','tot_snow','t','wind',
'pstar','q',
var_name='',
z1_tq_vary=.false.,
/
