&jules_time
l_360=.false.,
l_leap=.true.,
main_run_end='1997-12-31 23:00:00',
main_run_start='1996-12-31 23:00:00',
print_step=48,
timestep_len=1800,
/
&jules_spinup
max_spinup_cycles=0,
/
